Version 4.1
SHEET 1 880 680
WIRE 48 80 -96 80
WIRE 176 80 128 80
WIRE 272 80 176 80
WIRE 304 80 272 80
WIRE 400 80 368 80
WIRE 528 80 400 80
WIRE 64 128 16 128
WIRE 176 128 176 80
WIRE 176 128 112 128
WIRE -96 176 -96 80
WIRE 272 176 272 80
WIRE 528 176 528 80
WIRE 16 192 16 128
WIRE 48 192 16 192
WIRE 176 192 176 128
WIRE 176 192 128 192
WIRE 400 192 400 80
WIRE -96 336 -96 256
WIRE 272 336 272 256
WIRE 272 336 -96 336
WIRE 400 336 400 256
WIRE 400 336 272 336
WIRE 528 336 528 256
WIRE 528 336 400 336
WIRE 400 368 400 336
FLAG 400 368 0
SYMBOL voltage -96 160 R0
WINDOW 123 0 0 Left 0
WINDOW 39 0 0 Left 0
SYMATTR InstName V1
SYMATTR Value 9
SYMBOL voltage 32 192 R270
WINDOW 0 -32 56 VBottom 2
WINDOW 3 221 69 VTop 2
WINDOW 123 0 0 Left 0
WINDOW 39 0 0 Left 0
SYMATTR InstName V2
SYMATTR Value PULSE(0 1 0 1n 1n {Dmax/Fs} {1/Fs})
SYMBOL sw 144 80 M270
SYMATTR InstName S1
SYMBOL ind 256 160 R0
SYMATTR InstName L1
SYMATTR Value 348µ
SYMBOL cap 384 192 R0
SYMATTR InstName C1
SYMATTR Value 100µ
SYMBOL res 512 160 R0
SYMATTR InstName R1
SYMATTR Value 12
SYMBOL diode 368 64 R90
WINDOW 0 0 32 VBottom 2
WINDOW 3 32 32 VTop 2
SYMATTR InstName D1
SYMATTR Value IdealDiode
TEXT -120 -200 Left 2 !.tran 0 0.0202 0.02
TEXT -120 -168 Left 2 !.model SW SW(Ron=1n Roff=1000Meg Vt=0.0001)
TEXT -120 -128 Left 2 !.model IdealDiode D(Ron=1n Roff=100Meg Vfwd = 0.0001 Vrev=1000)
TEXT -112 -88 Left 2 !.param Fs=50k Dmin=0.4615 Dmax=0.5714
TEXT 32 -256 Left 2 ;DC DC CONVERTER BUCK BOOST EXEMPLO
